!<><><><><><><><><><><><><><><><><><><><><><><><><><><><><><><><><><><><><!     
!  Reduced version of GRI-MECH 1.2. 19 species ( + N2, AR); 84 reactions. !     
!                                 PennState Dec, 1994                     !     
!<><><><><><><><><><><><><><><><><><><><><><><><><><><><><><><><><><><><><!     
ELEMENTS                                                                        
O  H  C  N  AR                                                                  
END                                                                             
SPECIES                                                                         
H2      H       O       O2      OH      H2O     HO2                             
CH2     CH2(S)  CH3     CH4     CO      CO2     HCO                             
CH2O    CH3O    C2H4    C2H5    C2H6                                            
N2      AR                                                                      
END                                                                             
TRANS ALL
H2                 1    38.000     2.920     0.000     0.790   280.000          
H                  0   145.000     2.050     0.000     0.000     0.000          
O                  0    80.000     2.750     0.000     0.000     0.000          
O2                 1   107.400     3.458     0.000     1.600     3.800          
OH                 1    80.000     2.750     0.000     0.000     0.000          
H2O                2   572.400     2.605     1.844     0.000     4.000          
HO2                2   107.400     3.458     0.000     0.000     1.000          
CH2                1   144.000     3.800     0.000     0.000     0.000          
CH2(S)             1   144.000     3.800     0.000     0.000     0.000          
CH3                1   144.000     3.800     0.000     0.000     0.000          
CH4                2   141.400     3.746     0.000     2.600    13.000          
CO                 1    98.100     3.650     0.000     1.950     1.800          
CO2                1   244.000     3.763     0.000     2.650     2.100          
HCO                2   498.000     3.590     0.000     0.000     0.000          
CH2O               2   498.000     3.590     0.000     0.000     2.000          
CH3O               2   417.000     3.690     1.700     0.000     2.000          
C2H4               2   280.800     3.971     0.000     0.000     1.500          
C2H5               2   252.300     4.302     0.000     0.000     1.500          
C2H6               2   252.300     4.302     0.000     0.000     1.500          
N2                 1    97.530     3.621     0.000     1.760     4.000          
AR                 0   136.500     3.330     0.000     0.000     0.000          
END
REACTIONS                                                                       
O+H+M<=>OH+M                             5.000E+17   -1.000      0.00           
H2/2.00/ H2O/6.00/ CH4/2.00/ CO/1.50/ CO2/2.00/ C2H6/3.00/ AR/0.70/             
O+H2<=>H+OH                              5.000E+04    2.670   6290.00           
O+HO2<=>OH+O2                            2.000E+13    0.000      0.00           
O+CH2<=>H+HCO                            8.000E+13    0.000      0.00           
O+CH2(S)<=>H+HCO                         1.500E+13    0.000      0.00           
O+CH3<=>H+CH2O                           8.430E+13    0.000      0.00           
O+CH4<=>OH+CH3                           1.020E+09    1.500   8600.00           
O+CO+M<=>CO2+M                           6.020E+14    0.000   3000.00           
H2/2.00/ O2/6.00/ H2O/6.00/ CH4/2.00/ CO/1.50/ CO2/3.50/ C2H6/3.00/ AR/0.50/    
O+HCO<=>OH+CO                            3.000E+13    0.000      0.00           
O+HCO<=>H+CO2                            3.000E+13    0.000      0.00           
O+CH2O<=>OH+HCO                          3.900E+13    0.000   3540.00           
O+C2H4<=>CH3+HCO                         1.920E+07    1.830    220.00           
O+C2H5<=>CH3+CH2O                        1.320E+14    0.000      0.00           
O+C2H6<=>OH+C2H5                         8.980E+07    1.920   5690.00           
O2+CO<=>O+CO2                            2.500E+12    0.000  47800.00           
O2+CH2O<=>HO2+HCO                        1.000E+14    0.000  40000.00           
H+O2+M<=>HO2+M                           2.800E+18   -0.860      0.00           
O2/0.00/ H2O/0.00/ CO/0.75/ CO2/1.50/ C2H6/1.50/ N2/0.00/ AR/0.00/              
H+2O2<=>HO2+O2                           3.000E+20   -1.720      0.00           
H+O2+H2O<=>HO2+H2O                       9.380E+18   -0.760      0.00           
H+O2+N2<=>HO2+N2                         3.750E+20   -1.720      0.00           
H+O2+AR<=>HO2+AR                         7.000E+17   -0.800      0.00           
H+O2<=>O+OH                              8.300E+13    0.000  14413.00           
2H+M<=>H2+M                              1.000E+18   -1.000      0.00           
H2/0.00/ H2O/0.00/ CH4/2.00/ CO2/0.00/ C2H6/3.00/ AR/0.63/                      
2H+H2<=>2H2                              9.000E+16   -0.600      0.00           
2H+H2O<=>H2+H2O                          6.000E+19   -1.250      0.00           
2H+CO2<=>H2+CO2                          5.500E+20   -2.000      0.00           
H+OH+M<=>H2O+M                           2.200E+22   -2.000      0.00           
H2/0.73/ H2O/3.65/ CH4/2.00/ C2H6/3.00/ AR/0.38/                                
H+HO2<=>O2+H2                            2.800E+13    0.000   1068.00           
H+HO2<=>2OH                              1.340E+14    0.000    635.00           
H+CH2(+M)<=>CH3(+M)                      2.500E+16   -0.800      0.00           
     LOW  /  3.200E+27   -3.140   1230.00/                                      
     TROE/  0.6800   78.00  1995.00  5590.00 /                                  
H2/2.00/ H2O/6.00/ CH4/2.00/ CO/1.50/ CO2/2.00/ C2H6/3.00/ AR/0.70/             
H+CH3(+M)<=>CH4(+M)                      1.270E+16   -0.630    383.00           
     LOW  /  2.477E+33   -4.760   2440.00/                                      
     TROE/  0.7830   74.00  2941.00  6964.00 /                                  
H2/2.00/ H2O/6.00/ CH4/2.00/ CO/1.50/ CO2/2.00/ C2H6/3.00/ AR/0.70/             
H+CH4<=>CH3+H2                           6.600E+08    1.620  10840.00           
H+HCO(+M)<=>CH2O(+M)                     1.090E+12    0.480   -260.00           
     LOW  /  1.350E+24   -2.570   1425.00/                                      
     TROE/  0.7824  271.00  2755.00  6570.00 /                                  
H2/2.00/ H2O/6.00/ CH4/2.00/ CO/1.50/ CO2/2.00/ C2H6/3.00/ AR/0.70/             
H+HCO<=>H2+CO                            7.340E+13    0.000      0.00           
H+CH2O(+M)<=>CH3O(+M)                    5.400E+11    0.454   2600.00           
     LOW  /  2.200E+30   -4.800   5560.00/                                      
     TROE/  0.7580   94.00  1555.00  4200.00 /                                  
H2/2.00/ H2O/6.00/ CH4/2.00/ CO/1.50/ CO2/2.00/ C2H6/3.00/                      
H+CH2O<=>HCO+H2                          2.300E+10    1.050   3275.00           
H+CH3O<=>OH+CH3                          3.200E+13    0.000      0.00           
H+C2H4(+M)<=>C2H5(+M)                    1.080E+12    0.454   1820.00           
     LOW  /  1.200E+42   -7.620   6970.00/                                      
     TROE/  0.9753  210.00   984.00  4374.00 /                                  
H2/2.00/ H2O/6.00/ CH4/2.00/ CO/1.50/ CO2/2.00/ C2H6/3.00/ AR/0.70/             
H+C2H5(+M)<=>C2H6(+M)                    5.210E+17   -0.990   1580.00           
     LOW  /  1.990E+41   -7.080   6685.00/                                      
     TROE/  0.8422  125.00  2219.00  6882.00 /                                  
H2/2.00/ H2O/6.00/ CH4/2.00/ CO/1.50/ CO2/2.00/ C2H6/3.00/ AR/0.70/             
H+C2H6<=>C2H5+H2                         1.150E+08    1.900   7530.00           
H2+CO(+M)<=>CH2O(+M)                     4.300E+07    1.500  79600.00           
     LOW  /  5.070E+27   -3.420  84350.00/                                      
     TROE/  0.9320  197.00  1540.00 10300.00 /                                  
H2/2.00/ H2O/6.00/ CH4/2.00/ CO/1.50/ CO2/2.00/ C2H6/3.00/ AR/0.70/             
OH+H2<=>H+H2O                            2.160E+08    1.510   3430.00           
2OH<=>O+H2O                              3.570E+04    2.400  -2110.00           
OH+HO2<=>O2+H2O                          2.900E+13    0.000   -500.00           
OH+CH2<=>H+CH2O                          2.000E+13    0.000      0.00           
OH+CH2(S)<=>H+CH2O                       3.000E+13    0.000      0.00           
OH+CH3<=>CH2+H2O                         5.600E+07    1.600   5420.00           
OH+CH3<=>CH2(S)+H2O                      2.501E+13    0.000      0.00           
OH+CH4<=>CH3+H2O                         1.000E+08    1.600   3120.00           
OH+CO<=>H+CO2                            4.760E+07    1.228     70.00           
OH+HCO<=>H2O+CO                          5.000E+13    0.000      0.00           
OH+CH2O<=>HCO+H2O                        3.430E+09    1.180   -447.00           
OH+C2H6<=>C2H5+H2O                       3.540E+06    2.120    870.00           
HO2+CH2<=>OH+CH2O                        2.000E+13    0.000      0.00           
HO2+CH3<=>O2+CH4                         1.000E+12    0.000      0.00           
HO2+CH3<=>OH+CH3O                        2.000E+13    0.000      0.00           
HO2+CO<=>OH+CO2                          1.500E+14    0.000  23600.00           
CH2+O2<=>OH+HCO                          1.320E+13    0.000   1500.00           
CH2+H2<=>H+CH3                           5.000E+05    2.000   7230.00           
CH2+CH3<=>H+C2H4                         4.000E+13    0.000      0.00           
CH2+CH4<=>2CH3                           2.460E+06    2.000   8270.00           
CH2(S)+N2<=>CH2+N2                       1.500E+13    0.000    600.00           
CH2(S)+AR<=>CH2+AR                       9.000E+12    0.000    600.00           
CH2(S)+O2<=>H+OH+CO                      2.800E+13    0.000      0.00           
CH2(S)+O2<=>CO+H2O                       1.200E+13    0.000      0.00           
CH2(S)+H2<=>CH3+H                        7.000E+13    0.000      0.00           
CH2(S)+H2O<=>CH2+H2O                     3.000E+13    0.000      0.00           
CH2(S)+CH3<=>H+C2H4                      1.200E+13    0.000   -570.00           
CH2(S)+CH4<=>2CH3                        1.600E+13    0.000   -570.00           
CH2(S)+CO<=>CH2+CO                       9.000E+12    0.000      0.00           
CH2(S)+CO2<=>CH2+CO2                     7.000E+12    0.000      0.00           
CH2(S)+CO2<=>CO+CH2O                     1.400E+13    0.000      0.00           
CH3+O2<=>O+CH3O                          2.675E+13    0.000  28800.00           
CH3+O2<=>OH+CH2O                         3.600E+10    0.000   8940.00           
2CH3(+M)<=>C2H6(+M)                      2.120E+16   -0.970    620.00           
     LOW  /  1.770E+50   -9.670   6220.00/                                      
     TROE/  0.5325  151.00  1038.00  4970.00 /                                  
H2/2.00/ H2O/6.00/ CH4/2.00/ CO/1.50/ CO2/2.00/ C2H6/3.00/ AR/0.70/             
2CH3<=>H+C2H5                            4.990E+12    0.100  10600.00           
CH3+HCO<=>CH4+CO                         2.648E+13    0.000      0.00           
CH3+CH2O<=>HCO+CH4                       3.320E+03    2.810   5860.00           
CH3+C2H6<=>C2H5+CH4                      6.140E+06    1.740  10450.00           
HCO+H2O<=>H+CO+H2O                       2.244E+18   -1.000  17000.00           
HCO+M<=>H+CO+M                           1.870E+17   -1.000  17000.00           
H2/2.00/ H2O/0.00/ CH4/2.00/ CO/1.50/ CO2/2.00/ C2H6/3.00/                      
HCO+O2<=>HO2+CO                          7.600E+12    0.000    400.00           
CH3O+O2<=>HO2+CH2O                       4.280E-13    7.600  -3530.00           
C2H5+O2<=>HO2+C2H4                       8.400E+11    0.000   3875.00           
END                                                                             
